      18
 i =       20, E =       -61.6537074638
  C         7.3629150000        6.8025800000        6.1148800000
  C         8.4262711163        7.6891655710        6.7263316993
  O         7.6554456796        8.6723390443        7.4162535846
  H         9.1505911683        8.1687317606        6.0522607378
  C         9.0248859766        6.8809092228        7.9117589744
  C         6.7977030207        7.7533843242        8.1152363247
  C         6.3445608698        6.8366092061        6.9953816457
  C         5.7543041087        8.4727902144        8.9146090999
  C         7.8538330628        6.9328348918        8.9116242828
  H         7.4742653227        6.1777876529        5.2234396577
  H         5.4227697391        6.2453699512        6.9982890034
  H         6.2285132513        9.1568888110        9.6394439629
  H         5.1348604432        7.7513866806        9.4764410344
  H         5.0921691368        9.0562196954        8.2528928598
  H         7.4785915575        5.9408880107        9.2160482282
  H         8.1302374230        7.4951804083        9.8218897767
  H         9.9131762781        7.4001281156        8.3098905474
  H         9.3184757485        5.8580503745        7.6214571690
