      49
 i =        7, E =     -5814.4666303354
 Pt         0.0000000000        0.0000000000        5.0000000000
 Pt         1.4060005200        2.4352643300        5.0000000000
 Pt         2.8120010300        0.0000000000        5.0000000000
 Pt         4.2180015500        2.4352643300        5.0000000000
 Pt         2.8120010300        4.8705286600        5.0000000000
 Pt         4.2180015500        7.3057929900        5.0000000000
 Pt         5.6240020700        4.8705286600        5.0000000000
 Pt         7.0300025900        7.3057929900        5.0000000000
 Pt         5.6240020700        0.0000000000        5.0000000000
 Pt         7.0300025900        2.4352643300        5.0000000000
 Pt         8.4360031000        0.0000000000        5.0000000000
 Pt         9.8420036200        2.4352643300        5.0000000000
 Pt         8.4360031000        4.8705286600        5.0000000000
 Pt         9.8420036200        7.3057929900        5.0000000000
 Pt        11.2480041400        4.8705286600        5.0000000000
 Pt        12.6540046500        7.3057929900        5.0000000000
 Pt         5.6281983421        3.2464920363        7.3476670492
 Pt         4.2177519129        0.8090666051        7.3388271551
 Pt         2.8115813755        3.2431229141        7.3390899320
 Pt         8.4383127073        8.1100051175        7.3485278412
 Pt         7.0313024672        5.6807074857        7.3342761956
 Pt         5.6256875604        8.1170656230        7.3284974068
 Pt        11.2440925415        3.2492962221        7.3497396964
 Pt         9.8441753519        0.8105053506        7.3298785970
 Pt         8.4367948645        3.2458865127        7.3344655590
 Pt        14.0591448367        8.1156173552        7.3350746111
 Pt        12.6513882891        5.6795288991        7.3333385961
 Pt        11.2457657093        8.1151031916        7.3320493633
 Pt         1.4085966508        0.8110548967        7.3385163338
 Pt         4.2176394249        5.6788201345        7.3300560269
 Pt         7.0265425283        0.8100886398        7.3298715629
 Pt         9.8432229314        5.6811367467        7.3375642533
 Pt         2.8141101642        1.6231619740        9.6830195306
 Pt         4.2137393058        4.0535018268        9.6795326545
 Pt         5.6218605914        1.6164120409        9.6816297428
 Pt         7.0106847052        4.0426127396        9.6725158925
 Pt         5.6072032601        6.5000250782        9.6553417115
 Pt         7.0287033788        8.9328160230        9.6760358877
 Pt         8.4371558374        6.5151178117        9.6738468142
 Pt         9.8453648660        8.9313823301        9.6822264768
 Pt         8.4392163308        1.6005231016        9.6558151495
 Pt         9.8655493867        4.0419780524        9.6738027183
 Pt        11.2536933433        1.6169306256        9.6799049936
 Pt        12.6607228194        4.0547127659        9.6834658535
 Pt        11.2653236408        6.4982573044        9.6635116205
 Pt        12.6537405674        8.9264121627        9.6669927702
 Pt        14.0585041768        6.4912117326        9.6681041740
 Pt        15.4678637650        8.9272540933        9.6660663736
  H         8.4309321375        4.8666014941       10.6344078794
